LAMMPS (5 Jun 2019)
package intel 1
package intel 0
# FENE beadspring

variable        N index off     # Newton Setting
variable	w index 10	# Warmup Timesteps
variable	t index 8000	# Main Run Timesteps
variable	m index 1	# Main Run Timestep Multiplier
variable	n index 0	# Use NUMA Mapping for Multi-Node
variable	p index 0	# Use Power Measurement

variable	x index 4
variable	y index 2
variable	z index 2

variable	rr equal floor($t*$m)
variable	rr equal floor(8000*$m)
variable	rr equal floor(8000*1)

newton          $N
newton          off
if "$n > 0"	then "processors * * * grid numa"

units		lj
atom_style	bond
special_bonds   fene

read_data	DATA/data.chain
  orthogonal box = (-16.796 -16.796 -16.796) to (16.796 16.796 16.796)
  reading atoms ...
  32000 atoms
  reading velocities ...
  32000 velocities
  scanning bonds ...
  reading bonds ...
  31680 bonds

replicate       $x $y $z
replicate       4 $y $z
replicate       4 2 $z
replicate       4 2 2
  orthogonal box = (-16.796 -16.796 -16.796) to (117.572 50.388 50.388)
  512000 atoms
  506880 bonds
  replicate CPU = 0.0660319 secs

neighbor	0.4 bin
neigh_modify	every 1 delay 1

bond_style      fene/intel
bond_coeff	1 30.0 1.5 1.0 1.0

pair_style	lj/cut/intel 1.12
pair_modify	shift yes
pair_coeff	1 1 1.0 1.0 1.12

fix		1 all nve/intel
fix		2 all langevin 1.0 1.0 10.0 904297

thermo          1000
timestep	0.012

if "$p > 0"	then "run_style verlet/power"

if "$w > 0"	then "run $w"
run $w
run 10
  update every 1 steps, delay 1 steps, check yes
Step Temp E_pair E_mol TotEng Press
0   0.97026929   0.44484093    20.494523    22.394765    4.6721833
Loop time of 0.0786205 on 272 procs for 10 steps with 512000 atoms

run		8000
Step Temp E_pair E_mol TotEng Press
10   0.96756009   0.44180841    20.501033    22.394178    4.7087886
Averages over the last 5 of 10 rows, steps 5000 to 8010:
Temp E_pair E_mol TotEng Press
1.00174 0.454461 20.5175 22.4745 4.80477
Loop time of 59.0321 on 272 procs for 8000 steps with 512000 atoms
