LAMMPS (5 Jun 2019)
package intel 1
package intel 0
# bulk Cu lattice

variable        N index on      # Newton Setting
variable	w index 10      # Warmup Timesteps
variable	t index 3100    # Main Run Timesteps
variable	m index 1       # Main Run Timestep Multiplier
variable	n index 0       # Use NUMA Mapping for Multi-Node
variable	p index 0       # Use Power Measurement

variable	x index 4
variable	y index 2
variable	z index 2

variable	rr equal floor($t*$m)
variable	rr equal floor(3100*$m)
variable	rr equal floor(3100*1)
variable	root getenv LMP_ROOT

newton          $N
newton          on
if "$n > 0"	then "processors * * * grid numa"

variable	xx equal 20*$x
variable	xx equal 20*4
variable	yy equal 20*$y
variable	yy equal 20*2
variable	zz equal 20*$z
variable	zz equal 20*2

units		metal
atom_style	atomic

lattice		fcc 3.615
Lattice spacing in x,y,z = 3.615 3.615 3.615
region		box block 0 80 0 40 0 40
create_box	1 box
Created orthogonal box = (0 0 0) to (289.2 144.6 144.6)
create_atoms	1 box
Created 512000 atoms

pair_style	eam/intel
pair_coeff	1 1 DATA/Cu_u3.eam
Reading potential file DATA/Cu_u3.eam with DATE: 2007-06-11

velocity	all create 1600.0 376847 loop geom

neighbor	1.0 bin
neigh_modify    every 1 delay 5 check yes

fix		1 all nve/intel

timestep	0.005
thermo		50

if "$p > 0"	then "run_style verlet/power"

if "$w > 0"	then "run $w"
run $w
run 10
  update every 1 steps, delay 5 steps, check yes
Step Temp E_pair E_mol TotEng Press
0         1600   -1812479.7            0     -1706590     18703.98
Loop time of 0.118908 on 272 procs for 10 steps with 512000 atoms

run		3100
Step Temp E_pair E_mol TotEng Press
10     475.7955   -1737663.2            0   -1706174.5    64958.415
Averages over the last 32 of 64 rows, steps 1600 to 3110:
Temp E_pair E_mol TotEng Press
798.004 -1.75906e+06 0 -1.70624e+06 51534.4
Loop time of 34.4017 on 272 procs for 3100 steps with 512000 atoms
