LAMMPS (5 Jun 2019)
package intel 1
package intel 0
# 3d Lennard-Jones melt

variable        N index off     # Newton Setting
variable	w index 10	# Warmup Timesteps
variable	t index 7900	# Main Run Timesteps
variable	m index 1	# Main Run Timestep Multiplier
variable	n index 0	# Use NUMA Mapping for Multi-Node
variable	p index 0	# Use Power Measurement

variable	x index 4
variable	y index 2
variable	z index 2

variable	xx equal 20*$x
variable	xx equal 20*4
variable	yy equal 20*$y
variable	yy equal 20*2
variable	zz equal 20*$z
variable	zz equal 20*2
variable	rr equal floor($t*$m)
variable	rr equal floor(7900*$m)
variable	rr equal floor(7900*1)

newton          $N
newton          off
if "$n > 0"	then "processors * * * grid numa"

units		lj
atom_style	atomic

lattice		fcc 0.8442
Lattice spacing in x,y,z = 1.6796 1.6796 1.6796
region		box block 0 80 0 40 0 40
create_box	1 box
Created orthogonal box = (0 0 0) to (134.368 67.1838 67.1838)
create_atoms	1 box
Created 512000 atoms
mass		1 1.0

velocity	all create 1.44 87287 loop geom

pair_style	lj/cut/intel 2.5
pair_coeff	1 1 1.0 1.0 2.5

neighbor	0.3 bin
neigh_modify	delay 0 every 20 check no

fix		1 all nve/intel
thermo		1000

if "$p > 0"	then "run_style verlet/power"

if "$w > 0"	then "run $w"
run $w
run 10
  update every 20 steps, delay 0 steps, check no
Step Temp E_pair E_mol TotEng Press
0         1.44   -6.7733683            0   -4.6133725   -5.0196711
Loop time of 0.0363009 on 272 procs for 10 steps with 512000 atoms

run		7900
Step Temp E_pair E_mol TotEng Press
10    1.1253136   -6.3000032            0   -4.6120362   -2.5604641
Averages over the last 5 of 9 rows, steps 4000 to 7910:
Temp E_pair E_mol TotEng Press
0.697351 -5.66672 0 -4.62069 0.747414
Loop time of 27.6518 on 272 procs for 7900 steps with 512000 atoms
