LAMMPS (5 Jun 2019)
package intel 1
package intel 0
# bulk Si via Stillinger-Weber

variable        N index on      # Newton Setting
variable        w index 10      # Warmup Timesteps
variable        t index 6200	# Main Run Timesteps
variable        m index 1       # Main Run Timestep Multiplier
variable        n index 0       # Use NUMA Mapping for Multi-Node
variable        p index 0       # Use Power Measurement

variable	x index 2
variable	y index 2
variable	z index 4

variable	xx equal 20*$x
variable	xx equal 20*2
variable	yy equal 20*$y
variable	yy equal 20*2
variable	zz equal 10*$z
variable	zz equal 10*4
variable        rr equal floor($t*$m)
variable        rr equal floor(6200*$m)
variable        rr equal floor(6200*1)
variable        root getenv LMP_ROOT

newton          $N
newton          on
if "$n > 0"     then "processors * * * grid numa"

units		metal
atom_style	atomic

lattice		diamond 5.431
Lattice spacing in x,y,z = 5.431 5.431 5.431
region		box block 0 40 0 40 0 40
create_box	1 box
Created orthogonal box = (0 0 0) to (217.24 217.24 217.24)
create_atoms	1 box
Created 512000 atoms

pair_style	sw/intel
pair_coeff	* * DATA/Si.sw Si
mass            1 28.06

velocity	all create 1000.0 376847 loop geom

neighbor	1.0 bin
neigh_modify    delay 5 every 1

fix		1 all nve/intel
thermo		1000
timestep	0.001

if "$p > 0"     then "run_style verlet/power"

if "$w > 0"     then "run $w"
run $w
run 10
  update every 1 steps, delay 5 steps, check yes
Step Temp E_pair E_mol TotEng Press
0         1000     -2220339            0     -2154158    6866.7609
Loop time of 0.0528021 on 272 procs for 10 steps with 512000 atoms

run             6200
Step Temp E_pair E_mol TotEng Press
10    551.81735   -2190612.5            0   -2154092.7    7812.1331
Averages over the last 4 of 8 rows, steps 4000 to 6210:
Temp E_pair E_mol TotEng Press
496.675 -2.18698e+06 0 -2.15411e+06 5789.08
Loop time of 37.089 on 272 procs for 6200 steps with 512000 atoms
